OpenDSS_Script/Scenario_4_or_8_PV_System_Definition_PV.txt
New PVSystem.PV_SYS_1 phases=1 bus1=34.1 kV=0.23 kVA=2.7412 irradiance=1 Pmpp=2.7412 %cutin=0.1 %cutout=0.1 yearly=PV_1
New PVSystem.PV_SYS_3 phases=1 bus1=70.1 kV=0.23 kVA=2.7412 irradiance=1 Pmpp=2.7412 %cutin=0.1 %cutout=0.1 yearly=PV_3
New PVSystem.PV_SYS_5 phases=1 bus1=74.1 kV=0.23 kVA=2.7412 irradiance=1 Pmpp=2.7412 %cutin=0.1 %cutout=0.1 yearly=PV_5
New PVSystem.PV_SYS_7 phases=1 bus1=178.2 kV=0.23 kVA=2.7412 irradiance=1 Pmpp=2.7412 %cutin=0.1 %cutout=0.1 yearly=PV_7
New PVSystem.PV_SYS_9 phases=1 bus1=225.1 kV=0.23 kVA=2.7412 irradiance=1 Pmpp=2.7412 %cutin=0.1 %cutout=0.1 yearly=PV_9
New PVSystem.PV_SYS_11 phases=1 bus1=249.2 kV=0.23 kVA=2.7412 irradiance=1 Pmpp=2.7412 %cutin=0.1 %cutout=0.1 yearly=PV_11
New PVSystem.PV_SYS_13 phases=1 bus1=276.2 kV=0.23 kVA=2.7412 irradiance=1 Pmpp=2.7412 %cutin=0.1 %cutout=0.1 yearly=PV_13
New PVSystem.PV_SYS_15 phases=1 bus1=314.2  kV=0.23 kVA=2.7412 irradiance=1 Pmpp=2.7412 %cutin=0.1 %cutout=0.1 yearly=PV_15
New PVSystem.PV_SYS_17 phases=1 bus1=327.3 kV=0.23 kVA=2.7412 irradiance=1 Pmpp=2.7412 %cutin=0.1 %cutout=0.1 yearly=PV_17
New PVSystem.PV_SYS_19 phases=1 bus1=342.3 kV=0.23 kVA=2.7412 irradiance=1 Pmpp=2.7412 %cutin=0.1 %cutout=0.1 yearly=PV_19
New PVSystem.PV_SYS_21 phases=1 bus1=387.1 kV=0.23 kVA=2.7412 irradiance=1 Pmpp=2.7412 %cutin=0.1 %cutout=0.1 yearly=PV_21
New PVSystem.PV_SYS_23 phases=1 bus1=406.2 kV=0.23 kVA=2.7412 irradiance=1 Pmpp=2.7412 %cutin=0.1 %cutout=0.1 yearly=PV_23
New PVSystem.PV_SYS_25 phases=1 bus1=502.1 kV=0.23 kVA=2.7412 irradiance=1 Pmpp=2.7412 %cutin=0.1 %cutout=0.1 yearly=PV_25
New PVSystem.PV_SYS_27 phases=1 bus1=539.3 kV=0.23 kVA=2.7412 irradiance=1 Pmpp=2.7412 %cutin=0.1 %cutout=0.1 yearly=PV_27
New PVSystem.PV_SYS_29 phases=1 bus1=562.1 kV=0.23 kVA=2.7412 irradiance=1 Pmpp=2.7412 %cutin=0.1 %cutout=0.1 yearly=PV_29
New PVSystem.PV_SYS_31 phases=1 bus1=611.1 kV=0.23 kVA=2.7412 irradiance=1 Pmpp=2.7412 %cutin=0.1 %cutout=0.1 yearly=PV_31
New PVSystem.PV_SYS_33 phases=1 bus1=619.3 kV=0.23 kVA=2.7412 irradiance=1 Pmpp=2.7412 %cutin=0.1 %cutout=0.1 yearly=PV_33
New PVSystem.PV_SYS_35 phases=1 bus1=639.2 kV=0.23 kVA=2.7412 irradiance=1 Pmpp=2.7412 %cutin=0.1 %cutout=0.1 yearly=PV_35
New PVSystem.PV_SYS_37 phases=1 bus1=682.2 kV=0.23 kVA=2.7412 irradiance=1 Pmpp=2.7412 %cutin=0.1 %cutout=0.1 yearly=PV_37
New PVSystem.PV_SYS_39 phases=1 bus1=701.3 kV=0.23 kVA=2.7412 irradiance=1 Pmpp=2.7412 %cutin=0.1 %cutout=0.1 yearly=PV_39
New PVSystem.PV_SYS_41 phases=1 bus1=755.2 kV=0.23 kVA=2.7412 irradiance=1 Pmpp=2.7412 %cutin=0.1 %cutout=0.1 yearly=PV_41
New PVSystem.PV_SYS_43 phases=1 bus1=780.3 kV=0.23 kVA=2.7412 irradiance=1 Pmpp=2.7412 %cutin=0.1 %cutout=0.1 yearly=PV_43
New PVSystem.PV_SYS_45 phases=1 bus1=813.2 kV=0.23 kVA=2.7412 irradiance=1 Pmpp=2.7412 %cutin=0.1 %cutout=0.1 yearly=PV_45
New PVSystem.PV_SYS_47 phases=1 bus1=835.3 kV=0.23 kVA=2.7412 irradiance=1 Pmpp=2.7412 %cutin=0.1 %cutout=0.1 yearly=PV_47
New PVSystem.PV_SYS_49 phases=1 bus1=861.1 kV=0.23 kVA=2.7412 irradiance=1 Pmpp=2.7412 %cutin=0.1 %cutout=0.1 yearly=PV_49
New PVSystem.PV_SYS_51 phases=1 bus1=896.1 kV=0.23 kVA=2.7412 irradiance=1 Pmpp=2.7412 %cutin=0.1 %cutout=0.1 yearly=PV_51
New PVSystem.PV_SYS_53 phases=1 bus1=899.2 kV=0.23 kVA=2.7412 irradiance=1 Pmpp=2.7412 %cutin=0.1 %cutout=0.1 yearly=PV_53
New PVSystem.PV_SYS_55 phases=1 bus1=906.1 kV=0.23 kVA=2.7412 irradiance=1 Pmpp=2.7412 %cutin=0.1 %cutout=0.1 yearly=PV_55